Program Version,EnergyPlus, Version 8.6.0-198c6a3cff, YMD=2017.01.19 11:42
